2
example
C        0.00000        1.40272        0.00000
H        0.00000        2.49029        0.50000
2
example
C        0.00000        1.40272        0.10000
H        0.00000        2.49029        1.0000
2
example
C        0.00000        1.40272        0.20000
H        0.00000        2.49029        1.50000
2
example
C        0.00000        1.40272        0.30000
H        0.00000        2.49029        2.00000
2
example
C        0.00000        1.40272        0.40000
H        0.00000        2.49029        2.50000
2
example
C        0.00000        1.40272        0.50000
H        0.00000        2.49029        3.00000